
---------- Begin Simulation Statistics ----------
final_tick                                49125026000                       # Number of ticks from beginning of simulation (restored from checkpoints and never reset)
host_inst_rate                                 121480                       # Simulator instruction rate (inst/s)
host_mem_usage                                8495204                       # Number of bytes of host memory used
host_op_rate                                   121476                       # Simulator op (including micro ops) rate (op/s)
host_seconds                                     5.02                       # Real time elapsed on the host
host_tick_rate                             9785464292                       # Simulator tick rate (ticks/s)
sim_freq                                 1000000000000                       # Frequency of simulated ticks
sim_insts                                      609826                       # Number of instructions simulated
sim_ops                                        609826                       # Number of ops (including micro ops) simulated
sim_seconds                                  0.049125                       # Number of seconds simulated
sim_ticks                                 49125026000                       # Number of ticks simulated
system.cpu.Branches                             12548                       # Number of branches fetched
system.cpu.committedInsts                      609826                       # Number of instructions committed
system.cpu.committedOps                        609826                       # Number of ops (including micro ops) committed
system.cpu.dtb.accesses                             0                       # DTB accesses
system.cpu.dtb.hits                                 0                       # DTB hits
system.cpu.dtb.misses                               0                       # DTB misses
system.cpu.dtb.read_accesses                        0                       # DTB read accesses
system.cpu.dtb.read_hits                            0                       # DTB read hits
system.cpu.dtb.read_misses                          0                       # DTB read misses
system.cpu.dtb.write_accesses                       0                       # DTB write accesses
system.cpu.dtb.write_hits                           0                       # DTB write hits
system.cpu.dtb.write_misses                         0                       # DTB write misses
system.cpu.idle_fraction                     0.000000                       # Percentage of idle cycles
system.cpu.itb.accesses                             0                       # DTB accesses
system.cpu.itb.hits                                 0                       # DTB hits
system.cpu.itb.misses                               0                       # DTB misses
system.cpu.itb.read_accesses                        0                       # DTB read accesses
system.cpu.itb.read_hits                            0                       # DTB read hits
system.cpu.itb.read_misses                          0                       # DTB read misses
system.cpu.itb.write_accesses                       0                       # DTB write accesses
system.cpu.itb.write_hits                           0                       # DTB write hits
system.cpu.itb.write_misses                         0                       # DTB write misses
system.cpu.not_idle_fraction                 1.000000                       # Percentage of non-idle cycles
system.cpu.numCycles                         49125026                       # number of cpu cycles simulated
system.cpu.numWorkItemsCompleted                    0                       # number of work items this cpu completed
system.cpu.numWorkItemsStarted                      0                       # number of work items this cpu started
system.cpu.num_busy_cycles               49125025.999000                       # Number of busy cycles
system.cpu.num_conditional_control_insts        11274                       # number of instructions that are conditional controls
system.cpu.num_fp_alu_accesses                      0                       # Number of float alu accesses
system.cpu.num_fp_insts                             0                       # number of float instructions
system.cpu.num_fp_register_reads                    0                       # number of times the floating registers were read
system.cpu.num_fp_register_writes                   0                       # number of times the floating registers were written
system.cpu.num_func_calls                         164                       # number of times a function call or return occured
system.cpu.num_idle_cycles                   0.001000                       # Number of idle cycles
system.cpu.num_int_alu_accesses                608716                       # Number of integer alu accesses
system.cpu.num_int_insts                       608716                       # number of integer instructions
system.cpu.num_int_register_reads              760424                       # number of times the integer registers were read
system.cpu.num_int_register_writes             569457                       # number of times the integer registers were written
system.cpu.num_load_insts                      191277                       # Number of load instructions
system.cpu.num_mem_refs                        219187                       # number of memory refs
system.cpu.num_store_insts                      27910                       # Number of store instructions
system.cpu.num_vec_alu_accesses                     0                       # Number of vector alu accesses
system.cpu.num_vec_insts                            0                       # number of vector instructions
system.cpu.num_vec_register_reads                   0                       # number of times the vector registers were read
system.cpu.num_vec_register_writes                  0                       # number of times the vector registers were written
system.cpu.op_class::No_OpClass                    10      0.00%      0.00% # Class of executed instruction
system.cpu.op_class::IntAlu                    349445     57.30%     57.30% # Class of executed instruction
system.cpu.op_class::IntMult                    41194      6.75%     64.06% # Class of executed instruction
system.cpu.op_class::IntDiv                         0      0.00%     64.06% # Class of executed instruction
system.cpu.op_class::FloatAdd                       0      0.00%     64.06% # Class of executed instruction
system.cpu.op_class::FloatCmp                       0      0.00%     64.06% # Class of executed instruction
system.cpu.op_class::FloatCvt                       0      0.00%     64.06% # Class of executed instruction
system.cpu.op_class::FloatMult                      0      0.00%     64.06% # Class of executed instruction
system.cpu.op_class::FloatMultAcc                   0      0.00%     64.06% # Class of executed instruction
system.cpu.op_class::FloatDiv                       0      0.00%     64.06% # Class of executed instruction
system.cpu.op_class::FloatMisc                      0      0.00%     64.06% # Class of executed instruction
system.cpu.op_class::FloatSqrt                      0      0.00%     64.06% # Class of executed instruction
system.cpu.op_class::SimdAdd                        0      0.00%     64.06% # Class of executed instruction
system.cpu.op_class::SimdAddAcc                     0      0.00%     64.06% # Class of executed instruction
system.cpu.op_class::SimdAlu                        0      0.00%     64.06% # Class of executed instruction
system.cpu.op_class::SimdCmp                        0      0.00%     64.06% # Class of executed instruction
system.cpu.op_class::SimdCvt                        0      0.00%     64.06% # Class of executed instruction
system.cpu.op_class::SimdMisc                       0      0.00%     64.06% # Class of executed instruction
system.cpu.op_class::SimdMult                       0      0.00%     64.06% # Class of executed instruction
system.cpu.op_class::SimdMultAcc                    0      0.00%     64.06% # Class of executed instruction
system.cpu.op_class::SimdShift                      0      0.00%     64.06% # Class of executed instruction
system.cpu.op_class::SimdShiftAcc                   0      0.00%     64.06% # Class of executed instruction
system.cpu.op_class::SimdDiv                        0      0.00%     64.06% # Class of executed instruction
system.cpu.op_class::SimdSqrt                       0      0.00%     64.06% # Class of executed instruction
system.cpu.op_class::SimdFloatAdd                   0      0.00%     64.06% # Class of executed instruction
system.cpu.op_class::SimdFloatAlu                   0      0.00%     64.06% # Class of executed instruction
system.cpu.op_class::SimdFloatCmp                   0      0.00%     64.06% # Class of executed instruction
system.cpu.op_class::SimdFloatCvt                   0      0.00%     64.06% # Class of executed instruction
system.cpu.op_class::SimdFloatDiv                   0      0.00%     64.06% # Class of executed instruction
system.cpu.op_class::SimdFloatMisc                  0      0.00%     64.06% # Class of executed instruction
system.cpu.op_class::SimdFloatMult                  0      0.00%     64.06% # Class of executed instruction
system.cpu.op_class::SimdFloatMultAcc               0      0.00%     64.06% # Class of executed instruction
system.cpu.op_class::SimdFloatSqrt                  0      0.00%     64.06% # Class of executed instruction
system.cpu.op_class::SimdReduceAdd                  0      0.00%     64.06% # Class of executed instruction
system.cpu.op_class::SimdReduceAlu                  0      0.00%     64.06% # Class of executed instruction
system.cpu.op_class::SimdReduceCmp                  0      0.00%     64.06% # Class of executed instruction
system.cpu.op_class::SimdFloatReduceAdd             0      0.00%     64.06% # Class of executed instruction
system.cpu.op_class::SimdFloatReduceCmp             0      0.00%     64.06% # Class of executed instruction
system.cpu.op_class::SimdAes                        0      0.00%     64.06% # Class of executed instruction
system.cpu.op_class::SimdAesMix                     0      0.00%     64.06% # Class of executed instruction
system.cpu.op_class::SimdSha1Hash                   0      0.00%     64.06% # Class of executed instruction
system.cpu.op_class::SimdSha1Hash2                  0      0.00%     64.06% # Class of executed instruction
system.cpu.op_class::SimdSha256Hash                 0      0.00%     64.06% # Class of executed instruction
system.cpu.op_class::SimdSha256Hash2                0      0.00%     64.06% # Class of executed instruction
system.cpu.op_class::SimdShaSigma2                  0      0.00%     64.06% # Class of executed instruction
system.cpu.op_class::SimdShaSigma3                  0      0.00%     64.06% # Class of executed instruction
system.cpu.op_class::SimdPredAlu                    0      0.00%     64.06% # Class of executed instruction
system.cpu.op_class::MemRead                   191277     31.37%     95.42% # Class of executed instruction
system.cpu.op_class::MemWrite                   27910      4.58%    100.00% # Class of executed instruction
system.cpu.op_class::FloatMemRead                   0      0.00%    100.00% # Class of executed instruction
system.cpu.op_class::FloatMemWrite                  0      0.00%    100.00% # Class of executed instruction
system.cpu.op_class::IprAccess                      0      0.00%    100.00% # Class of executed instruction
system.cpu.op_class::InstPrefetch                   0      0.00%    100.00% # Class of executed instruction
system.cpu.op_class::total                     609836                       # Class of executed instruction
system.cpu.workload.numSyscalls                    10                       # Number of system calls
system.membus.snoop_filter.hit_multi_requests            0                       # Number of requests hitting in the snoop filter with multiple (>1) holders of the requested data.
system.membus.snoop_filter.hit_multi_snoops            0                       # Number of snoops hitting in the snoop filter with multiple (>1) holders of the requested data.
system.membus.snoop_filter.hit_single_requests            0                       # Number of requests hitting in the snoop filter with a single holder of the requested data.
system.membus.snoop_filter.hit_single_snoops            0                       # Number of snoops hitting in the snoop filter with a single holder of the requested data.
system.membus.snoop_filter.tot_requests             0                       # Total number of requests made to the snoop filter.
system.membus.snoop_filter.tot_snoops               0                       # Total number of snoops made to the snoop filter.
system.membus.pwrStateResidencyTicks::UNDEFINED  49125026000                       # Cumulative time (in ticks) in various power states
system.membus.trans_dist::ReadReq              939375                       # Transaction distribution
system.membus.trans_dist::ReadResp             939375                       # Transaction distribution
system.membus.trans_dist::WriteReq              28388                       # Transaction distribution
system.membus.trans_dist::WriteResp             28388                       # Transaction distribution
system.membus.pkt_count_system.cpu.icache_port::system.mem_ctrl.port      1495214                       # Packet count per connected master and slave (bytes)
system.membus.pkt_count_system.cpu.dcache_port::system.mem_ctrl.port       440312                       # Packet count per connected master and slave (bytes)
system.membus.pkt_count::total                1935526                       # Packet count per connected master and slave (bytes)
system.membus.pkt_size_system.cpu.icache_port::system.mem_ctrl.port      2990428                       # Cumulative packet size per connected master and slave (bytes)
system.membus.pkt_size_system.cpu.dcache_port::system.mem_ctrl.port       963310                       # Cumulative packet size per connected master and slave (bytes)
system.membus.pkt_size::total                 3953738                       # Cumulative packet size per connected master and slave (bytes)
system.membus.snoops                                0                       # Total snoops (count)
system.membus.snoopTraffic                          0                       # Total snoop traffic (bytes)
system.membus.snoop_fanout::samples            967763                       # Request fanout histogram
system.membus.snoop_fanout::mean                    0                       # Request fanout histogram
system.membus.snoop_fanout::stdev                   0                       # Request fanout histogram
system.membus.snoop_fanout::underflows              0      0.00%      0.00% # Request fanout histogram
system.membus.snoop_fanout::0                  967763    100.00%    100.00% # Request fanout histogram
system.membus.snoop_fanout::1                       0      0.00%    100.00% # Request fanout histogram
system.membus.snoop_fanout::overflows               0      0.00%    100.00% # Request fanout histogram
system.membus.snoop_fanout::min_value               0                       # Request fanout histogram
system.membus.snoop_fanout::max_value               0                       # Request fanout histogram
system.membus.snoop_fanout::total              967763                       # Request fanout histogram
system.membus.reqLayer0.occupancy           996151000                       # Layer occupancy (ticks)
system.membus.reqLayer0.utilization               2.0                       # Layer utilization (%)
system.membus.respLayer1.occupancy          464150500                       # Layer occupancy (ticks)
system.membus.respLayer1.utilization              0.9                       # Layer utilization (%)
system.membus.respLayer0.occupancy         1694082500                       # Layer occupancy (ticks)
system.membus.respLayer0.utilization              3.4                       # Layer utilization (%)
system.mem_ctrl.pwrStateResidencyTicks::UNDEFINED  49125026000                       # Cumulative time (in ticks) in various power states
system.mem_ctrl.bytes_read::.cpu.inst         2990428                       # Number of bytes read from this memory
system.mem_ctrl.bytes_read::.cpu.data          854513                       # Number of bytes read from this memory
system.mem_ctrl.bytes_read::total             3844941                       # Number of bytes read from this memory
system.mem_ctrl.bytes_inst_read::.cpu.inst      2990428                       # Number of instructions bytes read from this memory
system.mem_ctrl.bytes_inst_read::total        2990428                       # Number of instructions bytes read from this memory
system.mem_ctrl.bytes_written::.cpu.data       108797                       # Number of bytes written to this memory
system.mem_ctrl.bytes_written::total           108797                       # Number of bytes written to this memory
system.mem_ctrl.num_reads::.cpu.inst           747607                       # Number of read requests responded to by this memory
system.mem_ctrl.num_reads::.cpu.data           191768                       # Number of read requests responded to by this memory
system.mem_ctrl.num_reads::total               939375                       # Number of read requests responded to by this memory
system.mem_ctrl.num_writes::.cpu.data           28388                       # Number of write requests responded to by this memory
system.mem_ctrl.num_writes::total               28388                       # Number of write requests responded to by this memory
system.mem_ctrl.bw_read::.cpu.inst           60873820                       # Total read bandwidth from this memory (bytes/s)
system.mem_ctrl.bw_read::.cpu.data           17394657                       # Total read bandwidth from this memory (bytes/s)
system.mem_ctrl.bw_read::total               78268478                       # Total read bandwidth from this memory (bytes/s)
system.mem_ctrl.bw_inst_read::.cpu.inst      60873820                       # Instruction read bandwidth from this memory (bytes/s)
system.mem_ctrl.bw_inst_read::total          60873820                       # Instruction read bandwidth from this memory (bytes/s)
system.mem_ctrl.bw_write::.cpu.data           2214696                       # Write bandwidth from this memory (bytes/s)
system.mem_ctrl.bw_write::total               2214696                       # Write bandwidth from this memory (bytes/s)
system.mem_ctrl.bw_total::.cpu.inst          60873820                       # Total bandwidth to/from this memory (bytes/s)
system.mem_ctrl.bw_total::.cpu.data          19609353                       # Total bandwidth to/from this memory (bytes/s)
system.mem_ctrl.bw_total::total              80483174                       # Total bandwidth to/from this memory (bytes/s)
system.mem_ctrl.avgPriority_.cpu.inst::samples    747607.00                       # Average QoS priority value for accepted requests
system.mem_ctrl.avgPriority_.cpu.data::samples    191041.00                       # Average QoS priority value for accepted requests
system.mem_ctrl.priorityMinLatency       0.000000018750                       # per QoS priority minimum request to response latency (s)
system.mem_ctrl.priorityMaxLatency       0.097120240750                       # per QoS priority maximum request to response latency (s)
system.mem_ctrl.numReadWriteTurnArounds             6                       # Number of turnarounds from READ to WRITE
system.mem_ctrl.numWriteReadTurnArounds             6                       # Number of turnarounds from WRITE to READ
system.mem_ctrl.numStayReadState              1918044                       # Number of times bus staying in READ state
system.mem_ctrl.numStayWriteState                  90                       # Number of times bus staying in WRITE state
system.mem_ctrl.readReqs                       939375                       # Number of read requests accepted
system.mem_ctrl.writeReqs                       28388                       # Number of write requests accepted
system.mem_ctrl.readBursts                     939375                       # Number of DRAM read bursts, including those serviced by the write queue
system.mem_ctrl.writeBursts                     28388                       # Number of DRAM write bursts, including those merged in the write queue
system.mem_ctrl.servicedByWrQ                     853                       # Number of DRAM read bursts serviced by the write queue
system.mem_ctrl.mergedWrBursts                  28262                       # Number of DRAM write bursts merged with an existing one
system.mem_ctrl.neitherReadNorWriteReqs             0                       # Number of requests that are neither read nor write
system.mem_ctrl.perBankRdBursts::0             745943                       # Per bank write bursts
system.mem_ctrl.perBankRdBursts::1                505                       # Per bank write bursts
system.mem_ctrl.perBankRdBursts::2                294                       # Per bank write bursts
system.mem_ctrl.perBankRdBursts::3                100                       # Per bank write bursts
system.mem_ctrl.perBankRdBursts::4                420                       # Per bank write bursts
system.mem_ctrl.perBankRdBursts::5                345                       # Per bank write bursts
system.mem_ctrl.perBankRdBursts::6                 25                       # Per bank write bursts
system.mem_ctrl.perBankRdBursts::7              22310                       # Per bank write bursts
system.mem_ctrl.perBankRdBursts::8             168580                       # Per bank write bursts
system.mem_ctrl.perBankRdBursts::9                  0                       # Per bank write bursts
system.mem_ctrl.perBankRdBursts::10                 0                       # Per bank write bursts
system.mem_ctrl.perBankRdBursts::11                 0                       # Per bank write bursts
system.mem_ctrl.perBankRdBursts::12                 0                       # Per bank write bursts
system.mem_ctrl.perBankRdBursts::13                 0                       # Per bank write bursts
system.mem_ctrl.perBankRdBursts::14                 0                       # Per bank write bursts
system.mem_ctrl.perBankRdBursts::15                 0                       # Per bank write bursts
system.mem_ctrl.perBankWrBursts::0                  0                       # Per bank write bursts
system.mem_ctrl.perBankWrBursts::1                  0                       # Per bank write bursts
system.mem_ctrl.perBankWrBursts::2                  0                       # Per bank write bursts
system.mem_ctrl.perBankWrBursts::3                  0                       # Per bank write bursts
system.mem_ctrl.perBankWrBursts::4                  0                       # Per bank write bursts
system.mem_ctrl.perBankWrBursts::5                  0                       # Per bank write bursts
system.mem_ctrl.perBankWrBursts::6                  0                       # Per bank write bursts
system.mem_ctrl.perBankWrBursts::7                 73                       # Per bank write bursts
system.mem_ctrl.perBankWrBursts::8                 23                       # Per bank write bursts
system.mem_ctrl.perBankWrBursts::9                  0                       # Per bank write bursts
system.mem_ctrl.perBankWrBursts::10                 0                       # Per bank write bursts
system.mem_ctrl.perBankWrBursts::11                 0                       # Per bank write bursts
system.mem_ctrl.perBankWrBursts::12                 0                       # Per bank write bursts
system.mem_ctrl.perBankWrBursts::13                 0                       # Per bank write bursts
system.mem_ctrl.perBankWrBursts::14                 0                       # Per bank write bursts
system.mem_ctrl.perBankWrBursts::15                 0                       # Per bank write bursts
system.mem_ctrl.avgRdQLen                        1.00                       # Average read queue length when enqueuing
system.mem_ctrl.avgWrQLen                       29.74                       # Average write queue length when enqueuing
system.mem_ctrl.totQLat                    2526677500                       # Total ticks spent queuing
system.mem_ctrl.totBusLat                  4692610000                       # Total ticks spent in databus transfers
system.mem_ctrl.totMemAccLat              20123965000                       # Total ticks spent from burst creation until serviced by the DRAM
system.mem_ctrl.avgQLat                       2692.19                       # Average queueing delay per DRAM burst
system.mem_ctrl.avgBusLat                     5000.00                       # Average bus latency per DRAM burst
system.mem_ctrl.avgMemAccLat                 21442.19                       # Average memory access latency per DRAM burst
system.mem_ctrl.numRdRetry                          0                       # Number of times read queue was full causing retry
system.mem_ctrl.numWrRetry                          0                       # Number of times write queue was full causing retry
system.mem_ctrl.readRowHits                    869332                       # Number of row buffer hits during reads
system.mem_ctrl.writeRowHits                       91                       # Number of row buffer hits during writes
system.mem_ctrl.readRowHitRate                  92.63                       # Row buffer hit rate for reads
system.mem_ctrl.writeRowHitRate                 72.22                       # Row buffer hit rate for writes
system.mem_ctrl.readPktSize::0                     21                       # Read request sizes (log2)
system.mem_ctrl.readPktSize::1                  19028                       # Read request sizes (log2)
system.mem_ctrl.readPktSize::2                 888936                       # Read request sizes (log2)
system.mem_ctrl.readPktSize::3                  31390                       # Read request sizes (log2)
system.mem_ctrl.readPktSize::4                      0                       # Read request sizes (log2)
system.mem_ctrl.readPktSize::5                      0                       # Read request sizes (log2)
system.mem_ctrl.readPktSize::6                      0                       # Read request sizes (log2)
system.mem_ctrl.writePktSize::0                    49                       # Write request sizes (log2)
system.mem_ctrl.writePktSize::1                  3468                       # Write request sizes (log2)
system.mem_ctrl.writePktSize::2                 24289                       # Write request sizes (log2)
system.mem_ctrl.writePktSize::3                   582                       # Write request sizes (log2)
system.mem_ctrl.writePktSize::4                     0                       # Write request sizes (log2)
system.mem_ctrl.writePktSize::5                     0                       # Write request sizes (log2)
system.mem_ctrl.writePktSize::6                     0                       # Write request sizes (log2)
system.mem_ctrl.rdQLenPdf::0                   938522                       # What read queue length does an incoming req see
system.mem_ctrl.rdQLenPdf::1                        0                       # What read queue length does an incoming req see
system.mem_ctrl.rdQLenPdf::2                        0                       # What read queue length does an incoming req see
system.mem_ctrl.rdQLenPdf::3                        0                       # What read queue length does an incoming req see
system.mem_ctrl.rdQLenPdf::4                        0                       # What read queue length does an incoming req see
system.mem_ctrl.rdQLenPdf::5                        0                       # What read queue length does an incoming req see
system.mem_ctrl.rdQLenPdf::6                        0                       # What read queue length does an incoming req see
system.mem_ctrl.rdQLenPdf::7                        0                       # What read queue length does an incoming req see
system.mem_ctrl.rdQLenPdf::8                        0                       # What read queue length does an incoming req see
system.mem_ctrl.rdQLenPdf::9                        0                       # What read queue length does an incoming req see
system.mem_ctrl.rdQLenPdf::10                       0                       # What read queue length does an incoming req see
system.mem_ctrl.rdQLenPdf::11                       0                       # What read queue length does an incoming req see
system.mem_ctrl.rdQLenPdf::12                       0                       # What read queue length does an incoming req see
system.mem_ctrl.rdQLenPdf::13                       0                       # What read queue length does an incoming req see
system.mem_ctrl.rdQLenPdf::14                       0                       # What read queue length does an incoming req see
system.mem_ctrl.rdQLenPdf::15                       0                       # What read queue length does an incoming req see
system.mem_ctrl.rdQLenPdf::16                       0                       # What read queue length does an incoming req see
system.mem_ctrl.rdQLenPdf::17                       0                       # What read queue length does an incoming req see
system.mem_ctrl.rdQLenPdf::18                       0                       # What read queue length does an incoming req see
system.mem_ctrl.rdQLenPdf::19                       0                       # What read queue length does an incoming req see
system.mem_ctrl.rdQLenPdf::20                       0                       # What read queue length does an incoming req see
system.mem_ctrl.rdQLenPdf::21                       0                       # What read queue length does an incoming req see
system.mem_ctrl.rdQLenPdf::22                       0                       # What read queue length does an incoming req see
system.mem_ctrl.rdQLenPdf::23                       0                       # What read queue length does an incoming req see
system.mem_ctrl.rdQLenPdf::24                       0                       # What read queue length does an incoming req see
system.mem_ctrl.rdQLenPdf::25                       0                       # What read queue length does an incoming req see
system.mem_ctrl.rdQLenPdf::26                       0                       # What read queue length does an incoming req see
system.mem_ctrl.rdQLenPdf::27                       0                       # What read queue length does an incoming req see
system.mem_ctrl.rdQLenPdf::28                       0                       # What read queue length does an incoming req see
system.mem_ctrl.rdQLenPdf::29                       0                       # What read queue length does an incoming req see
system.mem_ctrl.rdQLenPdf::30                       0                       # What read queue length does an incoming req see
system.mem_ctrl.rdQLenPdf::31                       0                       # What read queue length does an incoming req see
system.mem_ctrl.wrQLenPdf::0                        1                       # What write queue length does an incoming req see
system.mem_ctrl.wrQLenPdf::1                        1                       # What write queue length does an incoming req see
system.mem_ctrl.wrQLenPdf::2                        1                       # What write queue length does an incoming req see
system.mem_ctrl.wrQLenPdf::3                        1                       # What write queue length does an incoming req see
system.mem_ctrl.wrQLenPdf::4                        1                       # What write queue length does an incoming req see
system.mem_ctrl.wrQLenPdf::5                        1                       # What write queue length does an incoming req see
system.mem_ctrl.wrQLenPdf::6                        1                       # What write queue length does an incoming req see
system.mem_ctrl.wrQLenPdf::7                        1                       # What write queue length does an incoming req see
system.mem_ctrl.wrQLenPdf::8                        1                       # What write queue length does an incoming req see
system.mem_ctrl.wrQLenPdf::9                        1                       # What write queue length does an incoming req see
system.mem_ctrl.wrQLenPdf::10                       1                       # What write queue length does an incoming req see
system.mem_ctrl.wrQLenPdf::11                       1                       # What write queue length does an incoming req see
system.mem_ctrl.wrQLenPdf::12                       1                       # What write queue length does an incoming req see
system.mem_ctrl.wrQLenPdf::13                       1                       # What write queue length does an incoming req see
system.mem_ctrl.wrQLenPdf::14                       1                       # What write queue length does an incoming req see
system.mem_ctrl.wrQLenPdf::15                       1                       # What write queue length does an incoming req see
system.mem_ctrl.wrQLenPdf::16                       1                       # What write queue length does an incoming req see
system.mem_ctrl.wrQLenPdf::17                       7                       # What write queue length does an incoming req see
system.mem_ctrl.wrQLenPdf::18                       7                       # What write queue length does an incoming req see
system.mem_ctrl.wrQLenPdf::19                       7                       # What write queue length does an incoming req see
system.mem_ctrl.wrQLenPdf::20                       7                       # What write queue length does an incoming req see
system.mem_ctrl.wrQLenPdf::21                       7                       # What write queue length does an incoming req see
system.mem_ctrl.wrQLenPdf::22                       7                       # What write queue length does an incoming req see
system.mem_ctrl.wrQLenPdf::23                       7                       # What write queue length does an incoming req see
system.mem_ctrl.wrQLenPdf::24                       7                       # What write queue length does an incoming req see
system.mem_ctrl.wrQLenPdf::25                       7                       # What write queue length does an incoming req see
system.mem_ctrl.wrQLenPdf::26                       7                       # What write queue length does an incoming req see
system.mem_ctrl.wrQLenPdf::27                       7                       # What write queue length does an incoming req see
system.mem_ctrl.wrQLenPdf::28                       7                       # What write queue length does an incoming req see
system.mem_ctrl.wrQLenPdf::29                       7                       # What write queue length does an incoming req see
system.mem_ctrl.wrQLenPdf::30                       6                       # What write queue length does an incoming req see
system.mem_ctrl.wrQLenPdf::31                       6                       # What write queue length does an incoming req see
system.mem_ctrl.wrQLenPdf::32                       6                       # What write queue length does an incoming req see
system.mem_ctrl.wrQLenPdf::33                       0                       # What write queue length does an incoming req see
system.mem_ctrl.wrQLenPdf::34                       0                       # What write queue length does an incoming req see
system.mem_ctrl.wrQLenPdf::35                       0                       # What write queue length does an incoming req see
system.mem_ctrl.wrQLenPdf::36                       0                       # What write queue length does an incoming req see
system.mem_ctrl.wrQLenPdf::37                       0                       # What write queue length does an incoming req see
system.mem_ctrl.wrQLenPdf::38                       0                       # What write queue length does an incoming req see
system.mem_ctrl.wrQLenPdf::39                       0                       # What write queue length does an incoming req see
system.mem_ctrl.wrQLenPdf::40                       0                       # What write queue length does an incoming req see
system.mem_ctrl.wrQLenPdf::41                       0                       # What write queue length does an incoming req see
system.mem_ctrl.wrQLenPdf::42                       0                       # What write queue length does an incoming req see
system.mem_ctrl.wrQLenPdf::43                       0                       # What write queue length does an incoming req see
system.mem_ctrl.wrQLenPdf::44                       0                       # What write queue length does an incoming req see
system.mem_ctrl.wrQLenPdf::45                       0                       # What write queue length does an incoming req see
system.mem_ctrl.wrQLenPdf::46                       0                       # What write queue length does an incoming req see
system.mem_ctrl.wrQLenPdf::47                       0                       # What write queue length does an incoming req see
system.mem_ctrl.wrQLenPdf::48                       0                       # What write queue length does an incoming req see
system.mem_ctrl.wrQLenPdf::49                       0                       # What write queue length does an incoming req see
system.mem_ctrl.wrQLenPdf::50                       0                       # What write queue length does an incoming req see
system.mem_ctrl.wrQLenPdf::51                       0                       # What write queue length does an incoming req see
system.mem_ctrl.wrQLenPdf::52                       0                       # What write queue length does an incoming req see
system.mem_ctrl.wrQLenPdf::53                       0                       # What write queue length does an incoming req see
system.mem_ctrl.wrQLenPdf::54                       0                       # What write queue length does an incoming req see
system.mem_ctrl.wrQLenPdf::55                       0                       # What write queue length does an incoming req see
system.mem_ctrl.wrQLenPdf::56                       0                       # What write queue length does an incoming req see
system.mem_ctrl.wrQLenPdf::57                       0                       # What write queue length does an incoming req see
system.mem_ctrl.wrQLenPdf::58                       0                       # What write queue length does an incoming req see
system.mem_ctrl.wrQLenPdf::59                       0                       # What write queue length does an incoming req see
system.mem_ctrl.wrQLenPdf::60                       0                       # What write queue length does an incoming req see
system.mem_ctrl.wrQLenPdf::61                       0                       # What write queue length does an incoming req see
system.mem_ctrl.wrQLenPdf::62                       0                       # What write queue length does an incoming req see
system.mem_ctrl.wrQLenPdf::63                       0                       # What write queue length does an incoming req see
system.mem_ctrl.bytesPerActivate::samples        69191                       # Bytes accessed per row activation
system.mem_ctrl.bytesPerActivate::mean     868.175803                       # Bytes accessed per row activation
system.mem_ctrl.bytesPerActivate::gmean    788.127975                       # Bytes accessed per row activation
system.mem_ctrl.bytesPerActivate::stdev    279.239456                       # Bytes accessed per row activation
system.mem_ctrl.bytesPerActivate::0-127           270      0.39%      0.39% # Bytes accessed per row activation
system.mem_ctrl.bytesPerActivate::128-255         3034      4.38%      4.78% # Bytes accessed per row activation
system.mem_ctrl.bytesPerActivate::256-383         4466      6.45%     11.23% # Bytes accessed per row activation
system.mem_ctrl.bytesPerActivate::384-511         2465      3.56%     14.79% # Bytes accessed per row activation
system.mem_ctrl.bytesPerActivate::512-639         3327      4.81%     19.60% # Bytes accessed per row activation
system.mem_ctrl.bytesPerActivate::640-767         3109      4.49%     24.09% # Bytes accessed per row activation
system.mem_ctrl.bytesPerActivate::768-895         1705      2.46%     26.56% # Bytes accessed per row activation
system.mem_ctrl.bytesPerActivate::896-1023          368      0.53%     27.09% # Bytes accessed per row activation
system.mem_ctrl.bytesPerActivate::1024-1151        50447     72.91%    100.00% # Bytes accessed per row activation
system.mem_ctrl.bytesPerActivate::total         69191                       # Bytes accessed per row activation
system.mem_ctrl.rdPerTurnAround::samples            6                       # Reads before turning the bus around for writes
system.mem_ctrl.rdPerTurnAround::mean    154972.500000                       # Reads before turning the bus around for writes
system.mem_ctrl.rdPerTurnAround::gmean    6155.507350                       # Reads before turning the bus around for writes
system.mem_ctrl.rdPerTurnAround::stdev   357551.868164                       # Reads before turning the bus around for writes
system.mem_ctrl.rdPerTurnAround::0-32767            4     66.67%     66.67% # Reads before turning the bus around for writes
system.mem_ctrl.rdPerTurnAround::32768-65535            1     16.67%     83.33% # Reads before turning the bus around for writes
system.mem_ctrl.rdPerTurnAround::851968-884735            1     16.67%    100.00% # Reads before turning the bus around for writes
system.mem_ctrl.rdPerTurnAround::total              6                       # Reads before turning the bus around for writes
system.mem_ctrl.wrPerTurnAround::samples            6                       # Writes before turning the bus around for reads
system.mem_ctrl.wrPerTurnAround::mean              16                       # Writes before turning the bus around for reads
system.mem_ctrl.wrPerTurnAround::gmean      16.000000                       # Writes before turning the bus around for reads
system.mem_ctrl.wrPerTurnAround::16                 6    100.00%    100.00% # Writes before turning the bus around for reads
system.mem_ctrl.wrPerTurnAround::total              6                       # Writes before turning the bus around for reads
system.mem_ctrl.bytesReadDRAM                60065408                       # Total number of bytes read from DRAM
system.mem_ctrl.bytesReadWrQ                    54592                       # Total number of bytes read from write queue
system.mem_ctrl.bytesWritten                     6144                       # Total number of bytes written to DRAM
system.mem_ctrl.bytesReadSys                  3844941                       # Total read bytes from the system interface side
system.mem_ctrl.bytesWrittenSys                108797                       # Total written bytes from the system interface side
system.mem_ctrl.avgRdBW                       1222.70                       # Average DRAM read bandwidth in MiByte/s
system.mem_ctrl.avgWrBW                          0.13                       # Average achieved write bandwidth in MiByte/s
system.mem_ctrl.avgRdBWSys                      78.27                       # Average system read bandwidth in MiByte/s
system.mem_ctrl.avgWrBWSys                       2.21                       # Average system write bandwidth in MiByte/s
system.mem_ctrl.peakBW                       12800.00                       # Theoretical peak bandwidth in MiByte/s
system.mem_ctrl.busUtil                          9.55                       # Data bus utilization in percentage
system.mem_ctrl.busUtilRead                      9.55                       # Data bus utilization in percentage for reads
system.mem_ctrl.busUtilWrite                     0.00                       # Data bus utilization in percentage for writes
system.mem_ctrl.totGap                    49124900000                       # Total gap between requests
system.mem_ctrl.avgGap                       50761.29                       # Average gap between requests
system.mem_ctrl.masterReadBytes::.cpu.inst      2990428                       # Per-master bytes read from memory
system.mem_ctrl.masterReadBytes::.cpu.data       852409                       # Per-master bytes read from memory
system.mem_ctrl.masterWriteBytes::.cpu.data          578                       # Per-master bytes write to memory
system.mem_ctrl.masterReadRate::.cpu.inst 60873820.199097700417                       # Per-master bytes read from memory rate (Bytes/sec)
system.mem_ctrl.masterReadRate::.cpu.data 17351827.966462552547                       # Per-master bytes read from memory rate (Bytes/sec)
system.mem_ctrl.masterWriteRate::.cpu.data 11765.897080644801                       # Per-master bytes write to memory rate (Bytes/sec)
system.mem_ctrl.masterReadAccesses::.cpu.inst       747607                       # Per-master read serviced memory accesses
system.mem_ctrl.masterReadAccesses::.cpu.data       191768                       # Per-master read serviced memory accesses
system.mem_ctrl.masterWriteAccesses::.cpu.data        28388                       # Per-master write serviced memory accesses
system.mem_ctrl.masterReadTotalLat::.cpu.inst  15961219500                       # Per-master read total memory access latency
system.mem_ctrl.masterReadTotalLat::.cpu.data   4162745500                       # Per-master read total memory access latency
system.mem_ctrl.masterWriteTotalLat::.cpu.data 800804300750                       # Per-master write total memory access latency
system.mem_ctrl.masterReadAvgLat::.cpu.inst     21349.75                       # Per-master read average memory access latency
system.mem_ctrl.masterReadAvgLat::.cpu.data     21707.20                       # Per-master read average memory access latency
system.mem_ctrl.masterWriteAvgLat::.cpu.data  28209253.94                       # Per-master write average memory access latency
system.mem_ctrl.pageHitRate                     92.63                       # Row buffer hit rate, read and write combined
system.mem_ctrl.rank1.actEnergy              89914020                       # Energy for activate commands per rank (pJ)
system.mem_ctrl.rank1.preEnergy              47786640                       # Energy for precharge commands per rank (pJ)
system.mem_ctrl.rank1.readEnergy           1203661200                       # Energy for read commands per rank (pJ)
system.mem_ctrl.rank1.writeEnergy              120060                       # Energy for write commands per rank (pJ)
system.mem_ctrl.rank1.refreshEnergy      3877763760.000000                       # Energy for refresh commands per rank (pJ)
system.mem_ctrl.rank1.actBackEnergy       21059863530                       # Energy for active background per rank (pJ)
system.mem_ctrl.rank1.preBackEnergy        1129388160                       # Energy for precharge background per rank (pJ)
system.mem_ctrl.rank1.actPowerDownEnergy            0                       # Energy for active power-down per rank (pJ)
system.mem_ctrl.rank1.prePowerDownEnergy            0                       # Energy for precharge power-down per rank (pJ)
system.mem_ctrl.rank1.selfRefreshEnergy             0                       # Energy for self refresh per rank (pJ)
system.mem_ctrl.rank1.totalEnergy         27408497370                       # Total energy per rank (pJ)
system.mem_ctrl.rank1.averagePower         557.933493                       # Core power per rank (mW)
system.mem_ctrl.rank1.totalIdleTime                 0                       # Total Idle time Per DRAM Rank
system.mem_ctrl.rank1.memoryStateTime::IDLE   2678604500                       # Time in different power states
system.mem_ctrl.rank1.memoryStateTime::REF   1640340000                       # Time in different power states
system.mem_ctrl.rank1.memoryStateTime::SREF            0                       # Time in different power states
system.mem_ctrl.rank1.memoryStateTime::PRE_PDN            0                       # Time in different power states
system.mem_ctrl.rank1.memoryStateTime::ACT  44806081500                       # Time in different power states
system.mem_ctrl.rank1.memoryStateTime::ACT_PDN            0                       # Time in different power states
system.mem_ctrl.rank0.actEnergy             404138280                       # Energy for activate commands per rank (pJ)
system.mem_ctrl.rank0.preEnergy             214793205                       # Energy for precharge commands per rank (pJ)
system.mem_ctrl.rank0.readEnergy           5497385880                       # Energy for read commands per rank (pJ)
system.mem_ctrl.rank0.writeEnergy              381060                       # Energy for write commands per rank (pJ)
system.mem_ctrl.rank0.refreshEnergy      3877763760.000000                       # Energy for refresh commands per rank (pJ)
system.mem_ctrl.rank0.actBackEnergy       22105929240                       # Energy for active background per rank (pJ)
system.mem_ctrl.rank0.preBackEnergy         248490720                       # Energy for precharge background per rank (pJ)
system.mem_ctrl.rank0.actPowerDownEnergy            0                       # Energy for active power-down per rank (pJ)
system.mem_ctrl.rank0.prePowerDownEnergy            0                       # Energy for precharge power-down per rank (pJ)
system.mem_ctrl.rank0.selfRefreshEnergy             0                       # Energy for self refresh per rank (pJ)
system.mem_ctrl.rank0.totalEnergy         32348882145                       # Total energy per rank (pJ)
system.mem_ctrl.rank0.averagePower         658.501069                       # Core power per rank (mW)
system.mem_ctrl.rank0.totalIdleTime                 0                       # Total Idle time Per DRAM Rank
system.mem_ctrl.rank0.memoryStateTime::IDLE    371175000                       # Time in different power states
system.mem_ctrl.rank0.memoryStateTime::REF   1640340000                       # Time in different power states
system.mem_ctrl.rank0.memoryStateTime::SREF            0                       # Time in different power states
system.mem_ctrl.rank0.memoryStateTime::PRE_PDN            0                       # Time in different power states
system.mem_ctrl.rank0.memoryStateTime::ACT  47113511000                       # Time in different power states
system.mem_ctrl.rank0.memoryStateTime::ACT_PDN            0                       # Time in different power states
system.clk_domain.clock                          1000                       # Clock period in ticks
system.clk_domain.voltage_domain.voltage            1                       # Voltage in Volts
system.cpu.numPwrStateTransitions                   1                       # Number of power state transitions
system.cpu.pwrStateResidencyTicks::ON     49125026000                       # Cumulative time (in ticks) in various power states

---------- End Simulation Statistics   ----------
